test_system_data/gldFeeders/B4/R_1_2/DistributionSim_B4_R_1_2.glm
//Input feeder information for Taxonomy Feeders with different cases.
//Started on 10/21/09. This version created 21-Nov-2016 14:27:46.
// This version was created to perform FY11 Department of Energy
// analysis on the benefits of the SGIG grant projects.

clock {
     timezone MST+7MDT;
     starttime '2020-08-03 00:00:00';
     stoptime '2020-08-04 00:00:00';
}

#include "appliance_schedules.glm";
#include "water_and_setpoint_schedule_v5.glm";
#include "commercial_schedules.glm";
//#define stylesheet=http://gridlab-d.svn.sourceforge.net/viewvc/gridlab-d/trunk/core/gridlabd-2_0
#set minimum_timestep=1;
#set profiler=1;
#set relax_naming_rules=1;

module tape {
    flush_interval -1;
}
module climate;
module residential {
     implicit_enduses NONE;
};
module powerflow {
     solver_method NR;
     NR_iteration_limit 50;
};

class player {
     double value;
};

module market;
module connection;

class auction {
     double current_price_mean_24h;
     double current_price_stdev_24h;
};

object auction {
     name Market_1;
     period 300;
     special_mode BUYERS_ONLY;
     unit kW;
     init_price 12.0;
     init_stdev 0.05;
     fixed_price 12.0;
	 warmup 0;
}

//object fncs_msg {
//	name DistributionSim_B4_R_1_2;
//	parent Market_1;
//	option "transport:hostname localhost, port 5570";
//	publish "commit:network_node.distribution_load -> totalLoad";
//	subscribe "precommit:network_node.positive_sequence_voltage <- TransmissionSim/B4Voltage";
//	subscribe "precommit:Market_1.fixed_price <- MarketSim/LMP/B4";
//}

object helics_msg {
    name DistributionSim_B4_R_1_2;
    parent Market_1;
    configure DistributionSim_B4_R_1_2.json;
}

object climate {
     name "AZ-Phoenix";
     tmyfile "AZ-Phoenix.tmy3";
     interpolate QUADRATIC;
};

//Configurations

object regulator_configuration {     
      name regulator_configuration_3654;     
      name feeder_reg_cfg;     
      Control OUTPUT_VOLTAGE;     
      band_center 7500.0;     
      band_width 120;     
      connect_type WYE_WYE;     
      time_delay 30;     
      raise_taps 16;     
      lower_taps 16;     
      regulation 0.10;     
      tap_pos_A 0;     
      tap_pos_B 0;     
      tap_pos_C 0;     
}       

object line_configuration {     
      name line_configuration_24;     
      conductor_A overhead_line_conductor_2;     
      conductor_B overhead_line_conductor_2;     
      conductor_C overhead_line_conductor_2;     
      conductor_N overhead_line_conductor_2;     
      spacing line_spacing_17;     
}       

object line_configuration {     
      name line_configuration_25;     
      conductor_A overhead_line_conductor_2;     
      conductor_B overhead_line_conductor_2;     
      conductor_N overhead_line_conductor_2;     
      spacing line_spacing_18;     
}       

object line_configuration {     
      name line_configuration_26;     
      conductor_B overhead_line_conductor_2;     
      conductor_C overhead_line_conductor_2;     
      conductor_N overhead_line_conductor_2;     
      spacing line_spacing_19;     
}       

object line_configuration {     
      name line_configuration_27;     
      conductor_A underground_line_conductor_3;     
      conductor_B underground_line_conductor_3;     
      conductor_C underground_line_conductor_3;     
      conductor_N underground_line_conductor_3;     
      spacing line_spacing_17;     
}       

object line_configuration {     
      name line_configuration_28;     
      conductor_A overhead_line_conductor_4;     
      conductor_C overhead_line_conductor_4;     
      conductor_N overhead_line_conductor_4;     
      spacing line_spacing_20;     
}       

object line_configuration {     
      name line_configuration_29;     
      conductor_A underground_line_conductor_5;     
      conductor_C underground_line_conductor_5;     
      conductor_N underground_line_conductor_5;     
      spacing line_spacing_20;     
}       

object line_configuration {     
      name line_configuration_30;     
      conductor_B underground_line_conductor_3;     
      conductor_C underground_line_conductor_3;     
      conductor_N underground_line_conductor_3;     
      spacing line_spacing_19;     
}       

object line_configuration {     
      name line_configuration_31;     
      conductor_A underground_line_conductor_5;     
      conductor_B underground_line_conductor_5;     
      conductor_C underground_line_conductor_5;     
      conductor_N underground_line_conductor_5;     
      spacing line_spacing_17;     
}       

object line_configuration {     
      name line_configuration_32;     
      conductor_A underground_line_conductor_3;     
      conductor_C underground_line_conductor_3;     
      conductor_N underground_line_conductor_3;     
      spacing line_spacing_20;     
}       

object line_configuration {     
      name line_configuration_33;     
      conductor_A overhead_line_conductor_6;     
      conductor_C overhead_line_conductor_6;     
      conductor_N overhead_line_conductor_6;     
      spacing line_spacing_20;     
}       

object line_configuration {     
      name line_configuration_34;     
      conductor_A overhead_line_conductor_4;     
      conductor_N overhead_line_conductor_4;     
      spacing line_spacing_21;     
}       

object line_configuration {     
      name line_configuration_35;     
      conductor_A overhead_line_conductor_7;     
      conductor_B overhead_line_conductor_7;     
      conductor_C overhead_line_conductor_7;     
      conductor_N overhead_line_conductor_7;     
      spacing line_spacing_17;     
}       

object line_configuration {     
      name line_configuration_36;     
      conductor_A overhead_line_conductor_4;     
      conductor_B overhead_line_conductor_4;     
      conductor_C overhead_line_conductor_4;     
      conductor_N overhead_line_conductor_4;     
      spacing line_spacing_17;     
}       

object line_configuration {     
      name line_configuration_37;     
      conductor_A underground_line_conductor_8;     
      conductor_B underground_line_conductor_8;     
      conductor_C underground_line_conductor_8;     
      conductor_N underground_line_conductor_8;     
      spacing line_spacing_17;     
}       

object line_configuration {     
      name line_configuration_38;     
      conductor_B underground_line_conductor_3;     
      conductor_N underground_line_conductor_3;     
      spacing line_spacing_22;     
}       

object line_configuration {     
      name line_configuration_39;     
      conductor_A underground_line_conductor_3;     
      conductor_N underground_line_conductor_3;     
      spacing line_spacing_21;     
}       

object line_configuration {     
      name line_configuration_40;     
      conductor_A underground_line_conductor_3;     
      conductor_B underground_line_conductor_3;     
      conductor_N underground_line_conductor_3;     
      spacing line_spacing_18;     
}       

object line_configuration {     
      name line_configuration_41;     
      conductor_C underground_line_conductor_3;     
      conductor_N underground_line_conductor_3;     
      spacing line_spacing_23;     
}       

object line_configuration {     
      name line_configuration_42;     
      conductor_A overhead_line_conductor_9;     
      conductor_B overhead_line_conductor_9;     
      conductor_C overhead_line_conductor_9;     
      conductor_N overhead_line_conductor_9;     
      spacing line_spacing_17;     
}       

object line_configuration {     
      name line_configuration_43;     
      conductor_B overhead_line_conductor_10;     
      conductor_N overhead_line_conductor_10;     
      spacing line_spacing_22;     
}       

object line_configuration {     
      name line_configuration_44;     
      conductor_A overhead_line_conductor_2;     
      conductor_C overhead_line_conductor_2;     
      conductor_N overhead_line_conductor_2;     
      spacing line_spacing_20;     
}       

object line_configuration {     
      name line_configuration_45;     
      conductor_A underground_line_conductor_5;     
      conductor_B underground_line_conductor_5;     
      conductor_N underground_line_conductor_5;     
      spacing line_spacing_18;     
}       

object line_configuration {     
      name line_configuration_46;     
      conductor_B overhead_line_conductor_4;     
      conductor_C overhead_line_conductor_4;     
      conductor_N overhead_line_conductor_4;     
      spacing line_spacing_19;     
}       

object line_configuration {     
      name line_configuration_47;     
      conductor_A underground_line_conductor_11;     
      conductor_B underground_line_conductor_11;     
      conductor_C underground_line_conductor_11;     
      conductor_N underground_line_conductor_11;     
      spacing line_spacing_17;     
}       

object line_configuration {     
      name line_configuration_48;     
      conductor_A underground_line_conductor_12;     
      conductor_B underground_line_conductor_12;     
      conductor_C underground_line_conductor_12;     
      conductor_N underground_line_conductor_12;     
      spacing line_spacing_17;     
}       

object line_configuration {     
      name line_configuration_49;     
      conductor_A underground_line_conductor_13;     
      conductor_B underground_line_conductor_13;     
      conductor_C underground_line_conductor_13;     
      conductor_N underground_line_conductor_13;     
      spacing line_spacing_17;     
}       

object line_configuration {     
      name line_configuration_50;     
      conductor_A underground_line_conductor_14;     
      conductor_B underground_line_conductor_14;     
      conductor_C underground_line_conductor_14;     
      conductor_N underground_line_conductor_14;     
      spacing line_spacing_17;     
}       

object line_configuration {     
      name line_configuration_51;     
      conductor_A underground_line_conductor_14;     
      conductor_B underground_line_conductor_14;     
      conductor_N underground_line_conductor_14;     
      spacing line_spacing_18;     
}       

object line_configuration {     
      name line_configuration_52;     
      conductor_A overhead_line_conductor_4;     
      conductor_B overhead_line_conductor_4;     
      conductor_N overhead_line_conductor_4;     
      spacing line_spacing_18;     
}       

object line_configuration {     
      name line_configuration_53;     
      conductor_A overhead_line_conductor_10;     
      conductor_B overhead_line_conductor_10;     
      conductor_C overhead_line_conductor_10;     
      conductor_N overhead_line_conductor_10;     
      spacing line_spacing_17;     
}       

object line_configuration {     
      name line_configuration_54;     
      conductor_C overhead_line_conductor_4;     
      conductor_N overhead_line_conductor_4;     
      spacing line_spacing_23;     
}       

object line_configuration {     
      name line_configuration_55;     
      conductor_C overhead_line_conductor_10;     
      conductor_N overhead_line_conductor_10;     
      spacing line_spacing_23;     
}       

object line_configuration {     
      name line_configuration_56;     
      conductor_C overhead_line_conductor_2;     
      conductor_N overhead_line_conductor_2;     
      spacing line_spacing_23;     
}       

object line_configuration {     
      name line_configuration_57;     
      conductor_A underground_line_conductor_14;     
      conductor_C underground_line_conductor_14;     
      conductor_N underground_line_conductor_14;     
      spacing line_spacing_20;     
}       

object line_configuration {     
      name line_configuration_58;     
      conductor_A underground_line_conductor_5;     
      conductor_N underground_line_conductor_5;     
      spacing line_spacing_21;     
}       

object line_configuration {     
      name line_configuration_59;     
      conductor_A overhead_line_conductor_9;     
      conductor_N overhead_line_conductor_9;     
      spacing line_spacing_21;     
}       

object line_configuration {     
      name line_configuration_60;     
      conductor_A overhead_line_conductor_6;     
      conductor_B overhead_line_conductor_6;     
      conductor_C overhead_line_conductor_6;     
      conductor_N overhead_line_conductor_6;     
      spacing line_spacing_17;     
}       

object line_configuration {     
      name line_configuration_61;     
      conductor_A overhead_line_conductor_15;     
      conductor_B overhead_line_conductor_15;     
      conductor_C overhead_line_conductor_15;     
      conductor_N overhead_line_conductor_15;     
      spacing line_spacing_17;     
}       

object line_configuration {     
      name line_configuration_62;     
      conductor_B underground_line_conductor_5;     
      conductor_C underground_line_conductor_5;     
      conductor_N underground_line_conductor_5;     
      spacing line_spacing_19;     
}       

object line_configuration {     
      name line_configuration_63;     
      conductor_A underground_line_conductor_16;     
      conductor_B underground_line_conductor_16;     
      conductor_C underground_line_conductor_16;     
      conductor_N underground_line_conductor_16;     
      spacing line_spacing_17;     
}       

object line_spacing {     
      name line_spacing_17;     
      distance_AB 37.0 in;    
      distance_BC 37.0 in;    
      distance_AC 37.0 in;    
      distance_AN 37.0 in;    
      distance_BN 37.0 in;    
      distance_CN 37.0 in;    
}       

object line_spacing {     
      name line_spacing_18;     
      distance_AB 37.0 in;    
      distance_AN 37.0 in;    
      distance_BN 37.0 in;    
}       

object line_spacing {     
      name line_spacing_19;     
      distance_BC 37.0 in;    
      distance_BN 37.0 in;    
      distance_CN 37.0 in;    
}       

object line_spacing {     
      name line_spacing_20;     
      distance_AC 37.0 in;    
      distance_AN 37.0 in;    
      distance_CN 37.0 in;    
}       

object line_spacing {     
      name line_spacing_21;     
      distance_AN 37.0 in;    
}       

object line_spacing {     
      name line_spacing_22;     
      distance_BN 37.0 in;    
}       

object line_spacing {     
      name line_spacing_23;     
      distance_CN 37.0 in;    
}       

object overhead_line_conductor {     
      name overhead_line_conductor_2;     
      //name 4 CW;    
      rating.summer.continuous 180.0;     
      geometric_mean_radius 0.00340 ft;    
      resistance 0.28600;     
}       

object overhead_line_conductor {     
      name overhead_line_conductor_4;     
      //name 4 CU;    
      rating.summer.continuous 149.0;     
      geometric_mean_radius 0.00663 ft;    
      resistance 1.50000;     
}       

object overhead_line_conductor {     
      name overhead_line_conductor_6;     
      //name 3/0 ACSR;    
      rating.summer.continuous 300.0;     
      geometric_mean_radius 0.00600 ft;    
      resistance 0.63800;     
}       

object overhead_line_conductor {     
      name overhead_line_conductor_7;     
      //name 336 ACSR;    
      rating.summer.continuous 530.0;     
      geometric_mean_radius 0.02300 ft;    
      resistance 0.30300;     
}       

object overhead_line_conductor {     
      name overhead_line_conductor_9;     
      //name 1/0 AAC;    
      rating.summer.continuous 230.0;     
      geometric_mean_radius 0.01203 ft;    
      resistance 0.95300;     
}       

object overhead_line_conductor {     
      name overhead_line_conductor_10;     
      //name 4/0 ACSR;    
      rating.summer.continuous 334.0;     
      geometric_mean_radius 0.00814 ft;    
      resistance 0.56300;     
}       

object overhead_line_conductor {     
      name overhead_line_conductor_15;     
      //name 636 AAC;    
      rating.summer.continuous 858.0;     
      geometric_mean_radius 0.02940 ft;    
      resistance 0.16300;     
}       

object transformer_configuration {     
      name transformer_configuration_2457;     
      connect_type SINGLE_PHASE_CENTER_TAPPED;     
      install_type POLETOP;     
      primary_voltage 7200 V;    
      secondary_voltage 120 V;    
      power_rating 15.0;     
      powerA_rating 15.0;     
      resistance 0.01000;     
      reactance 0.00667;     
      shunt_impedance 318.750+314.579j;     
}       

object transformer_configuration {     
      name transformer_configuration_2458;     
      connect_type SINGLE_PHASE_CENTER_TAPPED;     
      install_type PADMOUNT;     
      primary_voltage 7200 V;    
      secondary_voltage 120 V;    
      power_rating 25.0;     
      powerA_rating 25.0;     
      resistance 0.00600;     
      reactance 0.00400;     
      shunt_impedance 339.610+277.567j;     
}       

object transformer_configuration {     
      name transformer_configuration_2459;     
      connect_type SINGLE_PHASE_CENTER_TAPPED;     
      install_type POLETOP;     
      primary_voltage 7200 V;    
      secondary_voltage 120 V;    
      power_rating 30.0;     
      powerA_rating 30.0;     
      resistance 0.00500;     
      reactance 0.00333;     
      shunt_impedance 350.040+368.799j;     
}       

object transformer_configuration {     
      name transformer_configuration_2460;     
      connect_type SINGLE_PHASE_CENTER_TAPPED;     
      install_type PADMOUNT;     
      primary_voltage 7200 V;    
      secondary_voltage 120 V;    
      power_rating 5;     
      powerA_rating 5;     
      resistance 0.015;     
      reactance 0.01;     
      shunt_impedance 297.890+318.530j;     
}       

object transformer_configuration {     
      name transformer_configuration_2461;     
      connect_type SINGLE_PHASE_CENTER_TAPPED;     
      install_type PADMOUNT;     
      primary_voltage 7200 V;    
      secondary_voltage 120 V;    
      power_rating 50.0;     
      powerA_rating 50.0;     
      resistance 0.00300;     
      reactance 0.00200;     
      shunt_impedance 391.760+364.825j;     
}       

object transformer_configuration {     
      name transformer_configuration_2462;     
      connect_type SINGLE_PHASE_CENTER_TAPPED;     
      install_type POLETOP;     
      primary_voltage 7200 V;    
      secondary_voltage 120 V;    
      power_rating 50.0;     
      powerA_rating 50.0;     
      resistance 0.00300;     
      reactance 0.00200;     
      shunt_impedance 391.760+404.201j;     
}       

object transformer_configuration {     
      name transformer_configuration_2463;     
      connect_type SINGLE_PHASE_CENTER_TAPPED;     
      install_type POLETOP;     
      primary_voltage 7200 V;    
      secondary_voltage 120 V;    
      power_rating 87.5;     
      powerA_rating 87.5;     
      resistance 0.00171;     
      reactance 0.00114;     
      shunt_impedance 469.985+477.638j;     
}       

object transformer_configuration {     
      name transformer_configuration_2464;     
      connect_type SINGLE_PHASE_CENTER_TAPPED;     
      install_type POLETOP;     
      primary_voltage 7200 V;    
      secondary_voltage 120 V;    
      power_rating 25.0;     
      powerA_rating 25.0;     
      resistance 0.00600;     
      reactance 0.00400;     
      shunt_impedance 339.610+378.975j;     
}       

object transformer_configuration {     
      name transformer_configuration_2465;     
      connect_type SINGLE_PHASE_CENTER_TAPPED;     
      install_type PADMOUNT;     
      primary_voltage 7200 V;    
      secondary_voltage 120 V;    
      power_rating 15.0;     
      powerA_rating 15.0;     
      resistance 0.01000;     
      reactance 0.00667;     
      shunt_impedance 318.750+322.842j;     
}       

object transformer_configuration {     
      name transformer_configuration_2466;     
      connect_type SINGLE_PHASE_CENTER_TAPPED;     
      install_type POLETOP;     
      primary_voltage 7200 V;    
      secondary_voltage 120 V;    
      power_rating 5;     
      powerA_rating 5;     
      resistance 0.015;     
      reactance 0.01;     
      shunt_impedance 297.890+328.854j;     
}       

object transformer_configuration {     
      name transformer_configuration_2467;     
      connect_type SINGLE_PHASE_CENTER_TAPPED;     
      install_type PADMOUNT;     
      primary_voltage 7200 V;    
      secondary_voltage 120 V;    
      power_rating 10.0;     
      powerA_rating 10.0;     
      resistance 0.015;     
      reactance 0.01;     
      shunt_impedance 308.320+304.720j;     
}       

object transformer_configuration {     
      name transformer_configuration_2468;     
      connect_type SINGLE_PHASE_CENTER_TAPPED;     
      install_type PADMOUNT;     
      primary_voltage 7200 V;    
      secondary_voltage 120 V;    
      power_rating 175.0;     
      powerA_rating 175.0;     
      resistance 0.00086;     
      reactance 0.00057;     
      shunt_impedance 652.510+610.208j;     
}       

object transformer_configuration {     
      name transformer_configuration_2469;     
      connect_type SINGLE_PHASE_CENTER_TAPPED;     
      install_type PADMOUNT;     
      primary_voltage 7200 V;    
      secondary_voltage 120 V;    
      power_rating 75.0;     
      powerA_rating 75.0;     
      resistance 0.00200;     
      reactance 0.00133;     
      shunt_impedance 443.910+442.224j;     
}       

object transformer_configuration {     
      name transformer_configuration_2470;     
      connect_type SINGLE_PHASE_CENTER_TAPPED;     
      install_type PADMOUNT;     
      primary_voltage 7200 V;    
      secondary_voltage 120 V;    
      power_rating 250.0;     
      powerA_rating 250.0;     
      resistance 0.00060;     
      reactance 0.00040;     
      shunt_impedance 808.960+792.835j;     
}       

object transformer_configuration {     
      name transformer_configuration_2471;     
      connect_type SINGLE_PHASE_CENTER_TAPPED;     
      install_type PADMOUNT;     
      primary_voltage 7200 V;    
      secondary_voltage 120 V;    
      power_rating 37.5;     
      powerA_rating 37.5;     
      resistance 0.00400;     
      reactance 0.00267;     
      shunt_impedance 365.685+397.926j;     
}       

object transformer_configuration {     
      name transformer_configuration_2472;     
      connect_type SINGLE_PHASE_CENTER_TAPPED;     
      install_type PADMOUNT;     
      primary_voltage 7200 V;    
      secondary_voltage 120 V;    
      power_rating 112.5;     
      powerA_rating 112.5;     
      resistance 0.00133;     
      reactance 0.00089;     
      shunt_impedance 522.135+519.204j;     
}       

object transformer_configuration {     
      name transformer_configuration_2473;     
      connect_type SINGLE_PHASE_CENTER_TAPPED;     
      install_type PADMOUNT;     
      primary_voltage 7200 V;    
      secondary_voltage 120 V;    
      power_rating 87.5;     
      powerA_rating 87.5;     
      resistance 0.00171;     
      reactance 0.00114;     
      shunt_impedance 469.985+430.448j;     
}       

object transformer_configuration {     
      name transformer_configuration_2474;     
      connect_type SINGLE_PHASE_CENTER_TAPPED;     
      install_type POLETOP;     
      primary_voltage 7200 V;    
      secondary_voltage 120 V;    
      power_rating 112.5;     
      powerA_rating 112.5;     
      resistance 0.00133;     
      reactance 0.00089;     
      shunt_impedance 522.135+514.050j;     
}       

object transformer_configuration {     
      name transformer_configuration_2475;     
      connect_type SINGLE_PHASE_CENTER_TAPPED;     
      install_type PADMOUNT;     
      primary_voltage 7200 V;    
      secondary_voltage 120 V;    
      power_rating 25.0;     
      powerA_rating 25.0;     
      resistance 0.00600;     
      reactance 0.00400;     
      shunt_impedance 339.610+379.976j;     
}       

object transformer_configuration {     
      name transformer_configuration_2476;     
      connect_type SINGLE_PHASE_CENTER_TAPPED;     
      install_type POLETOP;     
      primary_voltage 7200 V;    
      secondary_voltage 120 V;    
      power_rating 5.0;     
      powerA_rating 5.0;     
      resistance 0.015;     
      reactance 0.01;     
      shunt_impedance 297.890+285.530j;     
}       

object transformer_configuration {     
      name transformer_configuration_2477;     
      connect_type SINGLE_PHASE_CENTER_TAPPED;     
      install_type POLETOP;     
      primary_voltage 7200 V;    
      secondary_voltage 120 V;    
      power_rating 10.0;     
      powerA_rating 10.0;     
      resistance 0.015;     
      reactance 0.01;     
      shunt_impedance 308.320+288.014j;     
}       

object transformer_configuration {     
      name transformer_configuration_2478;     
      connect_type SINGLE_PHASE_CENTER_TAPPED;     
      install_type PADMOUNT;     
      primary_voltage 7200 V;    
      secondary_voltage 120 V;    
      power_rating 25.0;     
      powerB_rating 25.0;     
      resistance 0.00600;     
      reactance 0.00400;     
      shunt_impedance 339.610+373.027j;     
}       

object transformer_configuration {     
      name transformer_configuration_2479;     
      connect_type SINGLE_PHASE_CENTER_TAPPED;     
      install_type POLETOP;     
      primary_voltage 7200 V;    
      secondary_voltage 120 V;    
      power_rating 30.0;     
      powerB_rating 30.0;     
      resistance 0.00500;     
      reactance 0.00333;     
      shunt_impedance 350.040+353.583j;     
}       

object transformer_configuration {     
      name transformer_configuration_2480;     
      connect_type SINGLE_PHASE_CENTER_TAPPED;     
      install_type PADMOUNT;     
      primary_voltage 7200 V;    
      secondary_voltage 120 V;    
      power_rating 87.5;     
      powerB_rating 87.5;     
      resistance 0.00171;     
      reactance 0.00114;     
      shunt_impedance 469.985+452.938j;     
}       

object transformer_configuration {     
      name transformer_configuration_2481;     
      connect_type SINGLE_PHASE_CENTER_TAPPED;     
      install_type PADMOUNT;     
      primary_voltage 7200 V;    
      secondary_voltage 120 V;    
      power_rating 50.0;     
      powerB_rating 50.0;     
      resistance 0.00300;     
      reactance 0.00200;     
      shunt_impedance 391.760+362.816j;     
}       

object transformer_configuration {     
      name transformer_configuration_2482;     
      connect_type SINGLE_PHASE_CENTER_TAPPED;     
      install_type POLETOP;     
      primary_voltage 7200 V;    
      secondary_voltage 120 V;    
      power_rating 50.0;     
      powerB_rating 50.0;     
      resistance 0.00300;     
      reactance 0.00200;     
      shunt_impedance 391.760+333.786j;     
}       

object transformer_configuration {     
      name transformer_configuration_2483;     
      connect_type SINGLE_PHASE_CENTER_TAPPED;     
      install_type POLETOP;     
      primary_voltage 7200 V;    
      secondary_voltage 120 V;    
      power_rating 87.5;     
      powerB_rating 87.5;     
      resistance 0.00171;     
      reactance 0.00114;     
      shunt_impedance 469.985+477.193j;     
}       

object transformer_configuration {     
      name transformer_configuration_2484;     
      connect_type SINGLE_PHASE_CENTER_TAPPED;     
      install_type POLETOP;     
      primary_voltage 7200 V;    
      secondary_voltage 120 V;    
      power_rating 25.0;     
      powerB_rating 25.0;     
      resistance 0.00600;     
      reactance 0.00400;     
      shunt_impedance 339.610+328.844j;     
}       

object transformer_configuration {     
      name transformer_configuration_2485;     
      connect_type SINGLE_PHASE_CENTER_TAPPED;     
      install_type PADMOUNT;     
      primary_voltage 7200 V;    
      secondary_voltage 120 V;    
      power_rating 15.0;     
      powerB_rating 15.0;     
      resistance 0.01000;     
      reactance 0.00667;     
      shunt_impedance 318.750+328.916j;     
}       

object transformer_configuration {     
      name transformer_configuration_2486;     
      connect_type SINGLE_PHASE_CENTER_TAPPED;     
      install_type PADMOUNT;     
      primary_voltage 7200 V;    
      secondary_voltage 120 V;    
      power_rating 5;     
      powerB_rating 5;     
      resistance 0.015;     
      reactance 0.01;     
      shunt_impedance 297.890+254.501j;     
}       

object transformer_configuration {     
      name transformer_configuration_2487;     
      connect_type SINGLE_PHASE_CENTER_TAPPED;     
      install_type POLETOP;     
      primary_voltage 7200 V;    
      secondary_voltage 120 V;    
      power_rating 5;     
      powerB_rating 5;     
      resistance 0.015;     
      reactance 0.01;     
      shunt_impedance 297.890+337.266j;     
}       

object transformer_configuration {     
      name transformer_configuration_2488;     
      connect_type SINGLE_PHASE_CENTER_TAPPED;     
      install_type POLETOP;     
      primary_voltage 7200 V;    
      secondary_voltage 120 V;    
      power_rating 15.0;     
      powerB_rating 15.0;     
      resistance 0.01000;     
      reactance 0.00667;     
      shunt_impedance 318.750+334.280j;     
}       

object transformer_configuration {     
      name transformer_configuration_2489;     
      connect_type SINGLE_PHASE_CENTER_TAPPED;     
      install_type PADMOUNT;     
      primary_voltage 7200 V;    
      secondary_voltage 120 V;    
      power_rating 10.0;     
      powerB_rating 10.0;     
      resistance 0.015;     
      reactance 0.01;     
      shunt_impedance 308.320+260.018j;     
}       

object transformer_configuration {     
      name transformer_configuration_2490;     
      connect_type SINGLE_PHASE_CENTER_TAPPED;     
      install_type PADMOUNT;     
      primary_voltage 7200 V;    
      secondary_voltage 120 V;    
      power_rating 175.0;     
      powerB_rating 175.0;     
      resistance 0.00086;     
      reactance 0.00057;     
      shunt_impedance 652.510+721.484j;     
}       

object transformer_configuration {     
      name transformer_configuration_2491;     
      connect_type SINGLE_PHASE_CENTER_TAPPED;     
      install_type PADMOUNT;     
      primary_voltage 7200 V;    
      secondary_voltage 120 V;    
      power_rating 75.0;     
      powerB_rating 75.0;     
      resistance 0.00200;     
      reactance 0.00133;     
      shunt_impedance 443.910+417.827j;     
}       

object transformer_configuration {     
      name transformer_configuration_2492;     
      connect_type SINGLE_PHASE_CENTER_TAPPED;     
      install_type PADMOUNT;     
      primary_voltage 7200 V;    
      secondary_voltage 120 V;    
      power_rating 250.0;     
      powerB_rating 250.0;     
      resistance 0.00060;     
      reactance 0.00040;     
      shunt_impedance 808.960+833.409j;     
}       

object transformer_configuration {     
      name transformer_configuration_2493;     
      connect_type SINGLE_PHASE_CENTER_TAPPED;     
      install_type PADMOUNT;     
      primary_voltage 7200 V;    
      secondary_voltage 120 V;    
      power_rating 37.5;     
      powerB_rating 37.5;     
      resistance 0.00400;     
      reactance 0.00267;     
      shunt_impedance 365.685+373.710j;     
}       

object transformer_configuration {     
      name transformer_configuration_2494;     
      connect_type SINGLE_PHASE_CENTER_TAPPED;     
      install_type PADMOUNT;     
      primary_voltage 7200 V;    
      secondary_voltage 120 V;    
      power_rating 112.5;     
      powerB_rating 112.5;     
      resistance 0.00133;     
      reactance 0.00089;     
      shunt_impedance 522.135+476.281j;     
}       

object transformer_configuration {     
      name transformer_configuration_2495;     
      connect_type SINGLE_PHASE_CENTER_TAPPED;     
      install_type POLETOP;     
      primary_voltage 7200 V;    
      secondary_voltage 120 V;    
      power_rating 112.5;     
      powerB_rating 112.5;     
      resistance 0.00133;     
      reactance 0.00089;     
      shunt_impedance 522.135+372.731j;     
}       

object transformer_configuration {     
      name transformer_configuration_2496;     
      connect_type SINGLE_PHASE_CENTER_TAPPED;     
      install_type PADMOUNT;     
      primary_voltage 7200 V;    
      secondary_voltage 120 V;    
      power_rating 25.0;     
      powerB_rating 25.0;     
      resistance 0.00600;     
      reactance 0.00400;     
      shunt_impedance 339.610+357.798j;     
}       

object transformer_configuration {     
      name transformer_configuration_2497;     
      connect_type SINGLE_PHASE_CENTER_TAPPED;     
      install_type POLETOP;     
      primary_voltage 7200 V;    
      secondary_voltage 120 V;    
      power_rating 5.0;     
      powerB_rating 5.0;     
      resistance 0.015;     
      reactance 0.01;     
      shunt_impedance 297.890+287.701j;     
}       

object transformer_configuration {     
      name transformer_configuration_2498;     
      connect_type SINGLE_PHASE_CENTER_TAPPED;     
      install_type POLETOP;     
      primary_voltage 7200 V;    
      secondary_voltage 120 V;    
      power_rating 10.0;     
      powerB_rating 10.0;     
      resistance 0.015;     
      reactance 0.01;     
      shunt_impedance 308.320+289.887j;     
}       

object transformer_configuration {     
      name transformer_configuration_2499;     
      connect_type SINGLE_PHASE_CENTER_TAPPED;     
      install_type POLETOP;     
      primary_voltage 7200 V;    
      secondary_voltage 120 V;    
      power_rating 15.0;     
      powerC_rating 15.0;     
      resistance 0.01000;     
      reactance 0.00667;     
      shunt_impedance 318.750+332.103j;     
}       

object transformer_configuration {     
      name transformer_configuration_2500;     
      connect_type SINGLE_PHASE_CENTER_TAPPED;     
      install_type PADMOUNT;     
      primary_voltage 7200 V;    
      secondary_voltage 120 V;    
      power_rating 25.0;     
      powerC_rating 25.0;     
      resistance 0.00600;     
      reactance 0.00400;     
      shunt_impedance 339.610+316.188j;     
}       

object transformer_configuration {     
      name transformer_configuration_2501;     
      connect_type SINGLE_PHASE_CENTER_TAPPED;     
      install_type POLETOP;     
      primary_voltage 7200 V;    
      secondary_voltage 120 V;    
      power_rating 30.0;     
      powerC_rating 30.0;     
      resistance 0.00500;     
      reactance 0.00333;     
      shunt_impedance 350.040+373.534j;     
}       

object transformer_configuration {     
      name transformer_configuration_2502;     
      connect_type SINGLE_PHASE_CENTER_TAPPED;     
      install_type PADMOUNT;     
      primary_voltage 7200 V;    
      secondary_voltage 120 V;    
      power_rating 87.5;     
      powerC_rating 87.5;     
      resistance 0.00171;     
      reactance 0.00114;     
      shunt_impedance 469.985+477.077j;     
}       

object transformer_configuration {     
      name transformer_configuration_2503;     
      connect_type SINGLE_PHASE_CENTER_TAPPED;     
      install_type PADMOUNT;     
      primary_voltage 7200 V;    
      secondary_voltage 120 V;    
      power_rating 50.0;     
      powerC_rating 50.0;     
      resistance 0.00300;     
      reactance 0.00200;     
      shunt_impedance 391.760+352.924j;     
}       

object transformer_configuration {     
      name transformer_configuration_2504;     
      connect_type SINGLE_PHASE_CENTER_TAPPED;     
      install_type POLETOP;     
      primary_voltage 7200 V;    
      secondary_voltage 120 V;    
      power_rating 50.0;     
      powerC_rating 50.0;     
      resistance 0.00300;     
      reactance 0.00200;     
      shunt_impedance 391.760+424.544j;     
}       

object transformer_configuration {     
      name transformer_configuration_2505;     
      connect_type SINGLE_PHASE_CENTER_TAPPED;     
      install_type POLETOP;     
      primary_voltage 7200 V;    
      secondary_voltage 120 V;    
      power_rating 87.5;     
      powerC_rating 87.5;     
      resistance 0.00171;     
      reactance 0.00114;     
      shunt_impedance 469.985+492.286j;     
}       

object transformer_configuration {     
      name transformer_configuration_2506;     
      connect_type SINGLE_PHASE_CENTER_TAPPED;     
      install_type POLETOP;     
      primary_voltage 7200 V;    
      secondary_voltage 120 V;    
      power_rating 25.0;     
      powerC_rating 25.0;     
      resistance 0.00600;     
      reactance 0.00400;     
      shunt_impedance 339.610+382.135j;     
}       

object transformer_configuration {     
      name transformer_configuration_2507;     
      connect_type SINGLE_PHASE_CENTER_TAPPED;     
      install_type PADMOUNT;     
      primary_voltage 7200 V;    
      secondary_voltage 120 V;    
      power_rating 15.0;     
      powerC_rating 15.0;     
      resistance 0.01000;     
      reactance 0.00667;     
      shunt_impedance 318.750+290.298j;     
}       

object transformer_configuration {     
      name transformer_configuration_2508;     
      connect_type SINGLE_PHASE_CENTER_TAPPED;     
      install_type PADMOUNT;     
      primary_voltage 7200 V;    
      secondary_voltage 120 V;    
      power_rating 10.0;     
      powerC_rating 10.0;     
      resistance 0.015;     
      reactance 0.01;     
      shunt_impedance 308.320+280.717j;     
}       

object transformer_configuration {     
      name transformer_configuration_2509;     
      connect_type SINGLE_PHASE_CENTER_TAPPED;     
      install_type PADMOUNT;     
      primary_voltage 7200 V;    
      secondary_voltage 120 V;    
      power_rating 175.0;     
      powerC_rating 175.0;     
      resistance 0.00086;     
      reactance 0.00057;     
      shunt_impedance 652.510+672.955j;     
}       

object transformer_configuration {     
      name transformer_configuration_2510;     
      connect_type SINGLE_PHASE_CENTER_TAPPED;     
      install_type PADMOUNT;     
      primary_voltage 7200 V;    
      secondary_voltage 120 V;    
      power_rating 75.0;     
      powerC_rating 75.0;     
      resistance 0.00200;     
      reactance 0.00133;     
      shunt_impedance 443.910+473.520j;     
}       

object transformer_configuration {     
      name transformer_configuration_2511;     
      connect_type SINGLE_PHASE_CENTER_TAPPED;     
      install_type PADMOUNT;     
      primary_voltage 7200 V;    
      secondary_voltage 120 V;    
      power_rating 250.0;     
      powerC_rating 250.0;     
      resistance 0.00060;     
      reactance 0.00040;     
      shunt_impedance 808.960+875.951j;     
}       

object transformer_configuration {     
      name transformer_configuration_2512;     
      connect_type SINGLE_PHASE_CENTER_TAPPED;     
      install_type PADMOUNT;     
      primary_voltage 7200 V;    
      secondary_voltage 120 V;    
      power_rating 37.5;     
      powerC_rating 37.5;     
      resistance 0.00400;     
      reactance 0.00267;     
      shunt_impedance 365.685+365.923j;     
}       

object transformer_configuration {     
      name transformer_configuration_2513;     
      connect_type SINGLE_PHASE_CENTER_TAPPED;     
      install_type PADMOUNT;     
      primary_voltage 7200 V;    
      secondary_voltage 120 V;    
      power_rating 112.5;     
      powerC_rating 112.5;     
      resistance 0.00133;     
      reactance 0.00089;     
      shunt_impedance 522.135+509.818j;     
}       

object transformer_configuration {     
      name transformer_configuration_2514;     
      connect_type SINGLE_PHASE_CENTER_TAPPED;     
      install_type POLETOP;     
      primary_voltage 7200 V;    
      secondary_voltage 120 V;    
      power_rating 112.5;     
      powerC_rating 112.5;     
      resistance 0.00133;     
      reactance 0.00089;     
      shunt_impedance 522.135+556.221j;     
}       

object transformer_configuration {     
      name transformer_configuration_2515;     
      connect_type SINGLE_PHASE_CENTER_TAPPED;     
      install_type POLETOP;     
      primary_voltage 7200 V;    
      secondary_voltage 120 V;    
      power_rating 5;     
      powerC_rating 5;     
      resistance 0.015;     
      reactance 0.01;     
      shunt_impedance 297.890+356.411j;     
}       

object transformer_configuration {     
      name transformer_configuration_2516;     
      connect_type SINGLE_PHASE_CENTER_TAPPED;     
      install_type PADMOUNT;     
      primary_voltage 7200 V;    
      secondary_voltage 120 V;    
      power_rating 25.0;     
      powerC_rating 25.0;     
      resistance 0.00600;     
      reactance 0.00400;     
      shunt_impedance 339.610+369.651j;     
}       

object transformer_configuration {     
      name transformer_configuration_2925;     
      connect_type WYE_WYE;     
      install_type POLETOP;     
      primary_voltage 12470.000 V;    
      secondary_voltage 480 V;    
      power_rating 1500.0;     
      powerA_rating 500.0;     
      powerB_rating 500.0;     
      powerC_rating 500.0;     
      resistance 0.00007;     
      reactance 0.00033;     
      shunt_impedance 3416.460+3445.342j;     
}       

object transformer_configuration {     
      name transformer_configuration_2926;     
      connect_type WYE_WYE;     
      install_type POLETOP;     
      primary_voltage 12470.000 V;    
      secondary_voltage 480 V;    
      power_rating 337.5;     
      powerA_rating 112.5;     
      powerB_rating 112.5;     
      powerC_rating 112.5;     
      resistance 0.00030;     
      reactance 0.00148;     
      shunt_impedance 991.485+934.523j;     
}       

object transformer_configuration {     
      name transformer_configuration_2927;     
      connect_type WYE_WYE;     
      install_type POLETOP;     
      primary_voltage 12470.000 V;    
      secondary_voltage 480 V;    
      power_rating 75.0;     
      powerA_rating 25.0;     
      powerB_rating 25.0;     
      powerC_rating 25.0;     
      resistance 0.00133;     
      reactance 0.00667;     
      shunt_impedance 443.910+466.094j;     
}       

object transformer_configuration {     
      name transformer_configuration_2928;     
      connect_type WYE_WYE;     
      install_type PADMOUNT;     
      primary_voltage 12470.000 V;    
      secondary_voltage 480 V;    
      power_rating 75.0;     
      powerA_rating 25.0;     
      powerB_rating 25.0;     
      powerC_rating 25.0;     
      resistance 0.00133;     
      reactance 0.00667;     
      shunt_impedance 443.910+422.420j;     
}       

object transformer_configuration {     
      name transformer_configuration_2929;     
      connect_type WYE_WYE;     
      install_type POLETOP;     
      primary_voltage 12470.000 V;    
      secondary_voltage 480 V;    
      power_rating 750.0;     
      powerA_rating 250.0;     
      powerB_rating 250.0;     
      powerC_rating 250.0;     
      resistance 0.00013;     
      reactance 0.00067;     
      shunt_impedance 1851.960+1896.119j;     
}       

object transformer_configuration {     
      name transformer_configuration_2930;     
      connect_type WYE_WYE;     
      install_type PADMOUNT;     
      primary_voltage 12470.000 V;    
      secondary_voltage 480 V;    
      power_rating 1500.0;     
      powerA_rating 500.0;     
      powerB_rating 500.0;     
      powerC_rating 500.0;     
      resistance 0.00007;     
      reactance 0.00033;     
      shunt_impedance 3416.460+3682.345j;     
}       

object transformer_configuration {     
      name transformer_configuration_2931;     
      connect_type WYE_WYE;     
      install_type PADMOUNT;     
      primary_voltage 12470.000 V;    
      secondary_voltage 480 V;    
      power_rating 337.5;     
      powerA_rating 112.5;     
      powerB_rating 112.5;     
      powerC_rating 112.5;     
      resistance 0.00030;     
      reactance 0.00148;     
      shunt_impedance 991.485+1083.125j;     
}       

object transformer_configuration {     
      name transformer_configuration_2932;     
      connect_type WYE_WYE;     
      install_type PADMOUNT;     
      primary_voltage 12470.000 V;    
      secondary_voltage 480 V;    
      power_rating 150.0;     
      powerA_rating 50.0;     
      powerB_rating 50.0;     
      powerC_rating 50.0;     
      resistance 0.00067;     
      reactance 0.00333;     
      shunt_impedance 600.360+635.669j;     
}       

object transformer_configuration {     
      name transformer_configuration_2933;     
      connect_type WYE_WYE;     
      install_type POLETOP;     
      primary_voltage 12470.000 V;    
      secondary_voltage 480 V;    
      power_rating 262.5;     
      powerA_rating 87.5;     
      powerB_rating 87.5;     
      powerC_rating 87.5;     
      resistance 0.00038;     
      reactance 0.00190;     
      shunt_impedance 835.035+950.097j;     
}       

object transformer_configuration {     
      name transformer_configuration_2934;     
      connect_type WYE_WYE;     
      install_type POLETOP;     
      primary_voltage 12470.000 V;    
      secondary_voltage 480 V;    
      power_rating 30.0;     
      powerB_rating 15.0;     
      powerC_rating 15.0;     
      resistance 0.00333;     
      reactance 0.01667;     
      shunt_impedance 350.040+414.840j;     
}       

object transformer_configuration {     
      name transformer_configuration_2935;     
      connect_type WYE_WYE;     
      install_type PADMOUNT;     
      primary_voltage 12470.000 V;    
      secondary_voltage 480 V;    
      power_rating 30.0;     
      powerA_rating 15.0;     
      powerC_rating 15.0;     
      resistance 0.00333;     
      reactance 0.01667;     
      shunt_impedance 350.040+283.614j;     
}       

object transformer_configuration {     
      name transformer_configuration_2936;     
      connect_type WYE_WYE;     
      install_type PADMOUNT;     
      primary_voltage 12470.000 V;    
      secondary_voltage 480 V;    
      power_rating 262.5;     
      powerA_rating 87.5;     
      powerB_rating 87.5;     
      powerC_rating 87.5;     
      resistance 0.00038;     
      reactance 0.00190;     
      shunt_impedance 835.035+686.509j;     
}       

object transformer_configuration {     
      name transformer_configuration_2937;     
      connect_type WYE_WYE;     
      install_type PADMOUNT;     
      primary_voltage 12470.000 V;    
      secondary_voltage 480 V;    
      power_rating 30.0;     
      powerA_rating 15.0;     
      powerB_rating 15.0;     
      resistance 0.00333;     
      reactance 0.01667;     
      shunt_impedance 350.040+317.744j;     
}       

object transformer_configuration {     
      name transformer_configuration_2938;     
      connect_type WYE_WYE;     
      install_type PADMOUNT;     
      primary_voltage 12470.000 V;    
      secondary_voltage 480 V;    
      power_rating 10.0;     
      powerA_rating 5.0;     
      powerB_rating 0.0;     
      powerC_rating 5.0;     
      resistance 0.01;     
      reactance 0.05;     
      shunt_impedance 308.320+246.720j;     
}       

object transformer_configuration {     
      name transformer_configuration_2939;     
      connect_type WYE_WYE;     
      install_type PADMOUNT;     
      primary_voltage 12470.000 V;    
      secondary_voltage 480 V;    
      power_rating 15.0;     
      powerA_rating 5.0;     
      powerB_rating 5.0;     
      powerC_rating 5.0;     
      resistance 0.00667;     
      reactance 0.03333;     
      shunt_impedance 318.750+307.367j;     
}       

object transformer_configuration {     
      name transformer_configuration_2940;     
      connect_type WYE_WYE;     
      install_type PADMOUNT;     
      primary_voltage 12470.000 V;    
      secondary_voltage 480 V;    
      power_rating 100.0;     
      powerA_rating 0.0;     
      powerB_rating 50.0;     
      powerC_rating 50.0;     
      resistance 0.00100;     
      reactance 0.00500;     
      shunt_impedance 496.060+479.373j;     
}       

object transformer_configuration {     
      name transformer_configuration_2941;     
      connect_type WYE_WYE;     
      install_type PADMOUNT;     
      primary_voltage 12470.000 V;    
      secondary_voltage 480 V;    
      power_rating 525.0;     
      powerA_rating 175.0;     
      powerB_rating 175.0;     
      powerC_rating 175.0;     
      resistance 0.00019;     
      reactance 0.00095;     
      shunt_impedance 1382.610+1417.234j;     
}       

object transformer_configuration {     
      name transformer_configuration_2942;     
      connect_type WYE_WYE;     
      install_type POLETOP;     
      primary_voltage 12470.000 V;    
      secondary_voltage 480 V;    
      power_rating 150.0;     
      powerA_rating 50.0;     
      powerB_rating 50.0;     
      powerC_rating 50.0;     
      resistance 0.00067;     
      reactance 0.00333;     
      shunt_impedance 600.360+617.540j;     
}       

object transformer_configuration {     
      name transformer_configuration_2943;     
      connect_type WYE_WYE;     
      install_type POLETOP;     
      primary_voltage 12470.000 V;    
      secondary_voltage 480 V;    
      power_rating 30.0;     
      powerA_rating 15.0;     
      powerB_rating 15.0;     
      resistance 0.00333;     
      reactance 0.01667;     
      shunt_impedance 350.040+326.021j;     
}       

object transformer_configuration {     
      name transformer_configuration_2944;     
      connect_type WYE_WYE;     
      install_type POLETOP;     
      primary_voltage 12470.000 V;    
      secondary_voltage 480 V;    
      power_rating 30.0;     
      powerA_rating 15.0;     
      powerB_rating 15.0;     
      powerC_rating 0.0;     
      resistance 0.00333;     
      reactance 0.01667;     
      shunt_impedance 350.040+321.571j;     
}       

object transformer_configuration {     
      name transformer_configuration_2945;     
      connect_type WYE_WYE;     
      install_type POLETOP;     
      primary_voltage 12470.000 V;    
      secondary_voltage 480 V;    
      power_rating 50.0;     
      powerA_rating 0.0;     
      powerB_rating 25.0;     
      powerC_rating 25.0;     
      resistance 0.00200;     
      reactance 0.01000;     
      shunt_impedance 391.760+422.842j;     
}       

object transformer_configuration {     
      name transformer_configuration_2946;     
      connect_type WYE_WYE;     
      install_type POLETOP;     
      primary_voltage 12470.000 V;    
      secondary_voltage 480 V;    
      power_rating 20.0;     
      powerA_rating 10.0;     
      powerB_rating 0.0;     
      powerC_rating 10.0;     
      resistance 0.00500;     
      reactance 0.02500;     
      shunt_impedance 329.180+316.607j;     
}       

object transformer_configuration {     
      name transformer_configuration_2947;     
      connect_type WYE_WYE;     
      install_type POLETOP;     
      primary_voltage 12470.000 V;    
      secondary_voltage 480 V;    
      power_rating 525.0;     
      powerA_rating 175.0;     
      powerB_rating 175.0;     
      powerC_rating 175.0;     
      resistance 0.00019;     
      reactance 0.00095;     
      shunt_impedance 1382.610+1193.026j;     
}       

object transformer_configuration {     
      name transformer_configuration_2948;     
      connect_type WYE_WYE;     
      install_type POLETOP;     
      primary_voltage 12470.000 V;    
      secondary_voltage 480 V;    
      power_rating 10.0;     
      powerA_rating 5.0;     
      powerB_rating 0.0;     
      powerC_rating 5.0;     
      resistance 0.01;     
      reactance 0.05;     
      shunt_impedance 308.320+308.638j;     
}       

object transformer_configuration {     
      name transformer_configuration_2949;     
      connect_type WYE_WYE;     
      install_type POLETOP;     
      primary_voltage 12470.000 V;    
      secondary_voltage 480 V;    
      power_rating 675.0;     
      powerA_rating 225.0;     
      powerB_rating 225.0;     
      powerC_rating 225.0;     
      resistance 0.00015;     
      reactance 0.00074;     
      shunt_impedance 1695.510+1730.121j;     
}       

object transformer_configuration {     
      name transformer_configuration_2950;     
      connect_type WYE_WYE;     
      install_type PADMOUNT;     
      primary_voltage 12470.000 V;    
      secondary_voltage 480 V;    
      power_rating 187.5;     
      powerA_rating 62.5;     
      powerB_rating 62.5;     
      powerC_rating 62.5;     
      resistance 0.00053;     
      reactance 0.00267;     
      shunt_impedance 678.585+650.693j;     
}       

object transformer_configuration {     
      name transformer_configuration_2951;     
      connect_type WYE_WYE;     
      install_type PADMOUNT;     
      primary_voltage 12470.000 V;    
      secondary_voltage 480 V;    
      power_rating 3000.0;     
      powerA_rating 1000.0;     
      powerB_rating 1000.0;     
      powerC_rating 1000.0;     
      resistance 0.00003;     
      reactance 0.00017;     
      shunt_impedance 6545.460+6979.791j;     
}       

object transformer_configuration {     
      name transformer_configuration_2952;     
      connect_type WYE_WYE;     
      install_type POLETOP;     
      primary_voltage 12470.000 V;    
      secondary_voltage 480 V;    
      power_rating 9000.0;     
      powerA_rating 3000.0;     
      powerB_rating 3000.0;     
      powerC_rating 3000.0;     
      resistance 0.00001;     
      reactance 0.00006;     
      shunt_impedance 19061.460+19491.834j;     
}       

object transformer_configuration {     
      name transformer_configuration_2953;     
      connect_type WYE_WYE;     
      install_type POLETOP;     
      primary_voltage 12470.000 V;    
      secondary_voltage 480 V;    
      power_rating 300.0;     
      powerA_rating 100.0;     
      powerB_rating 100.0;     
      powerC_rating 100.0;     
      resistance 0.00033;     
      reactance 0.00167;     
      shunt_impedance 913.260+893.822j;     
}       

object transformer_configuration {     
      name transformer_configuration_2954;     
      connect_type WYE_WYE;     
      install_type POLETOP;     
      primary_voltage 12470.000 V;    
      secondary_voltage 480 V;    
      power_rating 900.0;     
      powerA_rating 300.0;     
      powerB_rating 300.0;     
      powerC_rating 300.0;     
      resistance 0.00011;     
      reactance 0.00056;     
      shunt_impedance 2164.860+2155.327j;     
}       

object triplex_line_conductor {     
      name triplex_4/0 AA;    
      resistance 0.48;     
      geometric_mean_radius 0.0158;     
}       

object triplex_line_configuration {     
      name triplex_line_configuration_1;     
      conductor_1 triplex_4/0 AA;    
      conductor_2 triplex_4/0 AA;    
      conductor_N triplex_4/0 AA;    
      insulation_thickness 0.08;     
      diameter 0.522;     
}       

object underground_line_conductor {     
      name underground_line_conductor_3;     
      //name 2 AAC (Conc);   
      rating.summer.continuous 101.0;     
      outer_diameter 1.021;     
      conductor_gmr 0.00905 ft;    
      conductor_diameter 0.283;     
      conductor_resistance 1.4124;     
      neutral_gmr 0.0345268997272089 ft;    
      neutral_resistance 13.86528;     
      neutral_diameter 0.0641;     
      neutral_strands 7.0;     
      shield_gmr 0.00;     
      shield_resistance 0.00;     
}       

object underground_line_conductor {     
      name underground_line_conductor_5;     
      //name 1/0 AAC (Conc);   
      rating.summer.continuous 142.0;     
      outer_diameter 1.27;     
      conductor_gmr 0.01142 ft;    
      conductor_diameter 0.362;     
      conductor_resistance 0.88704;     
      neutral_gmr 0.0489686771417213 ft;    
      neutral_resistance 13.86528;     
      neutral_diameter 0.0641;     
      neutral_strands 16.0;     
      shield_gmr 0.00;     
      shield_resistance 0.00;     
}       

object underground_line_conductor {     
      name underground_line_conductor_8;     
      //name 1000 AAC (Conc);   
      rating.summer.continuous 488.0;     
      outer_diameter 2.15;     
      conductor_gmr 0.0371 ft;    
      conductor_diameter 1.152;     
      conductor_resistance 0.091872;     
      neutral_gmr 0.0842565914341201 ft;    
      neutral_resistance 5.3856;     
      neutral_diameter 0.1019;     
      neutral_strands 20.0;     
      shield_gmr 0.00;     
      shield_resistance 0.00;     
}       

object underground_line_conductor {     
      name underground_line_conductor_11;     
      //name 1000 CU (Conc);   
      rating.summer.continuous 662.0;     
      outer_diameter 2.291;     
      conductor_gmr 0.03592 ft;    
      conductor_diameter 1.117;     
      conductor_resistance 0.057024;     
      neutral_gmr 0.0897563211395267 ft;    
      neutral_resistance 3.44784;     
      neutral_diameter 0.1285;     
      neutral_strands 20.0;     
      shield_gmr 0.00;     
      shield_resistance 0.00;     
}       

object underground_line_conductor {     
      name underground_line_conductor_12;     
      //name 1000 AAC (Tape);   
      rating.summer.continuous 775.0;     
      outer_diameter 1.87;     
      conductor_gmr 0.0371 ft;    
      conductor_diameter 1.15;     
      conductor_resistance 0.0222;     
      neutral_gmr 0.0732739718442675 ft;    
      neutral_resistance 0.05;     
      neutral_diameter 0.102;     
      neutral_strands 20.0;     
      shield_gmr 0.00;     
      shield_resistance 0.00;     
}       

object underground_line_conductor {     
      name underground_line_conductor_13;     
      //name 750 AAC (Conc);   
      rating.summer.continuous 425.0;     
      outer_diameter 1.96;     
      conductor_gmr 0.0321 ft;    
      conductor_diameter 0.998;     
      conductor_resistance 0.122496;     
      neutral_gmr 0.0751564095285873 ft;    
      neutral_resistance 5.3856;     
      neutral_diameter 0.1019;     
      neutral_strands 15.0;     
      shield_gmr 0.00;     
      shield_resistance 0.00;     
}       

object underground_line_conductor {     
      name underground_line_conductor_14;     
      //name 2 AL (Conc);   
      rating.summer.continuous 112.0;     
      outer_diameter 1.09;     
      conductor_gmr 0.0088 ft;    
      conductor_diameter 0.292;     
      conductor_resistance 1.38336;     
      neutral_gmr 0.0348162687755351 ft;    
      neutral_resistance 13.5696;     
      neutral_diameter 0.0641;     
      neutral_strands 6.0;     
      shield_gmr 0.00;     
      shield_resistance 0.00;     
}       

object underground_line_conductor {     
      name underground_line_conductor_16;     
      //name 4/0 AAC (Conc);   
      rating.summer.continuous 214.0;     
      outer_diameter 1.32;     
      conductor_gmr 0.0177 ft;    
      conductor_diameter 0.528;     
      conductor_resistance 0.433488;     
      neutral_gmr 0.0485380344339232 ft;    
      neutral_resistance 13.5696;     
      neutral_diameter 0.0641;     
      neutral_strands 11.0;     
      shield_gmr 0.00;     
      shield_resistance 0.00;     
}       

object transformer_configuration {
     name trans_config_to_feeder;
     connect_type WYE_WYE;
     install_type PADMOUNT;
...